@<TRIPOS>MOLECULE
*****
 47 48 0 0 0
SMALL
GASTEIGER

@<TRIPOS>ATOM
      1 O           7.4130   -1.3850    0.7880 O.3     1  UNL1       -0.3703
      2 O          -7.4330   -1.1820   -1.0060 O.3     1  UNL1       -0.3703
      3 O           6.3710   -3.3190   -0.7250 O.3     1  UNL1       -0.3823
      4 O          -7.5060   -1.9520    1.5540 O.3     1  UNL1       -0.3823
      5 O           2.1470    3.9090    0.2580 O.3     1  UNL1       -0.2241
      6 O          -0.6560    1.9060   -1.5010 O.3     1  UNL1       -0.2241
      7 C           4.1870    0.1840   -0.2410 C.3     1  UNL1       -0.0098
      8 C          -4.1130    0.0320    0.1710 C.3     1  UNL1       -0.0098
      9 C           0.0170    2.8860    0.5850 C.3     1  UNL1        0.0178
     10 C           5.4420    0.0450    0.3820 C.3     1  UNL1        0.0067
     11 C          -5.1900   -0.2270   -0.6930 C.3     1  UNL1        0.0067
     12 C           6.1870   -1.1260    0.2300 C.3     1  UNL1        0.1361
     13 C          -6.3360   -0.8910   -0.2390 C.3     1  UNL1        0.1361
     14 C           3.7030   -0.8610   -1.0420 C.3     1  UNL1       -0.0245
     15 C          -4.1870   -0.4090    1.4990 C.3     1  UNL1       -0.0245
     16 C           3.4540    1.4460   -0.0540 C.3     1  UNL1       -0.0245
     17 C          -2.9170    0.6950   -0.3720 C.3     1  UNL1       -0.0245
     18 C           5.6670   -2.1570   -0.5580 C.3     1  UNL1        0.1328
     19 C          -6.3900   -1.3030    1.0990 C.3     1  UNL1        0.1328
     20 C           1.4750    2.8780    0.2010 C.3     1  UNL1        0.1427
     21 C          -0.8870    2.0760   -0.3060 C.3     1  UNL1        0.1427
     22 C           4.4400   -2.0360   -1.1950 C.3     1  UNL1        0.0031
     23 C          -5.3250   -1.0680    1.9660 C.3     1  UNL1        0.0031
     24 C           2.1170    1.5600   -0.0810 C.3     1  UNL1        0.0037
     25 C          -2.0930    1.4790    0.3390 C.3     1  UNL1        0.0037
     26 C           7.9870   -0.3480    1.5750 C.3     1  UNL1        0.0374
     27 C          -7.3930   -0.8190   -2.3780 C.3     1  UNL1        0.0374
     28 H          -0.3450    3.9200    0.5600 H       1  UNL1        0.0325
     29 H          -0.0450    2.5240    1.6180 H       1  UNL1        0.0325
     30 H           5.8130    0.8640    0.9890 H       1  UNL1        0.0340
     31 H          -5.1170    0.1050   -1.7240 H       1  UNL1        0.0340
     32 H           2.7560   -0.7740   -1.5670 H       1  UNL1        0.0313
     33 H          -3.3580   -0.2610    2.1860 H       1  UNL1        0.0313
     34 H           4.0650    2.3230    0.1550 H       1  UNL1        0.0313
     35 H          -2.7230    0.5230   -1.4310 H       1  UNL1        0.0313
     36 H           4.0640   -2.8480   -1.8110 H       1  UNL1        0.0337
     37 H          -5.3600   -1.3980    2.9990 H       1  UNL1        0.0337
     38 H           1.4660    0.7120   -0.2540 H       1  UNL1        0.0337
     39 H          -2.2550    1.7010    1.3860 H       1  UNL1        0.0337
     40 H           7.1940   -3.1900   -0.2140 H       1  UNL1        0.2104
     41 H          -7.3870   -2.1760    2.4900 H       1  UNL1        0.2104
     42 H           7.3710   -0.1350    2.4550 H       1  UNL1        0.0524
     43 H           8.1530    0.5560    0.9790 H       1  UNL1        0.0524
     44 H           8.9620   -0.6970    1.9270 H       1  UNL1        0.0524
     45 H          -6.5750   -1.3280   -2.8990 H       1  UNL1        0.0524
     46 H          -7.3220    0.2670   -2.4960 H       1  UNL1        0.0524
     47 H          -8.3310   -1.1430   -2.8380 H       1  UNL1        0.0524
@<TRIPOS>BOND
     1     1    12    1
     2     1    26    1
     3     2    13    1
     4     2    27    1
     5     3    18    1
     6     3    40    1
     7     4    19    1
     8     4    41    1
     9     5    20    1
    10     6    21    1
    11     7    10    1
    12     7    14    1
    13     7    16    1
    14     8    11    1
    15     8    15    1
    16     8    17    1
    17     9    20    1
    18     9    21    1
    19     9    28    1
    20     9    29    1
    21    10    12    1
    22    10    30    1
    23    11    13    1
    24    11    31    1
    25    12    18    1
    26    13    19    1
    27    14    22    1
    28    14    32    1
    29    15    23    1
    30    15    33    1
    31    16    24    1
    32    16    34    1
    33    17    25    1
    34    17    35    1
    35    18    22    1
    36    19    23    1
    37    20    24    1
    38    21    25    1
    39    22    36    1
    40    23    37    1
    41    24    38    1
    42    25    39    1
    43    26    42    1
    44    26    43    1
    45    26    44    1
    46    27    45    1
    47    27    46    1
    48    27    47    1
